<?xml version="1.0" encoding="UTF-8"?>
<routes>
    <vType id="car_main" accel="2.6" decel="4.5" sigma="0.48" length="4.8" minGap="2.5" maxSpeed="33.33"/>
    <vType id="car_ramp" accel="2.2" decel="4.5" sigma="0.50" length="4.8" minGap="2.5" maxSpeed="25.0"/>

    <route id="route_main" edges="main_in main_out"/>
    <route id="route_ramp" edges="ramp_in main_out"/>

    <vehicle id="ego" type="car_ramp" route="route_ramp" depart="0.00" departLane="0" departPos="25" departSpeed="16"/>
    <vehicle id="target_lane_front_seed" type="car_main" route="route_main" depart="0.00" departLane="2" departPos="150" departSpeed="18.5"/>
    <vehicle id="target_lane_gap_seed" type="car_main" route="route_main" depart="0.00" departLane="2" departPos="118" departSpeed="21.0"/>
    <vehicle id="target_lane_rear_seed" type="car_main" route="route_main" depart="0.00" departLane="2" departPos="82" departSpeed="23.0"/>
    <vehicle id="mid_lane_front_seed" type="car_main" route="route_main" depart="0.00" departLane="1" departPos="140" departSpeed="21.5"/>
    <vehicle id="mid_lane_rear_seed" type="car_main" route="route_main" depart="0.00" departLane="1" departPos="90" departSpeed="23.0"/>
    <vehicle id="right_lane_seed" type="car_main" route="route_main" depart="0.00" departLane="0" departPos="110" departSpeed="22.0"/>
    <vehicle id="ramp_front_seed" type="car_ramp" route="route_ramp" depart="0.00" departLane="0" departPos="92" departSpeed="14.5"/>
    <vehicle id="ramp_follow_seed" type="car_ramp" route="route_ramp" depart="0.00" departLane="0" departPos="4" departSpeed="17.5"/>

    <flow id="main_flow_left" type="car_main" route="route_main" begin="0.20" end="3600" vehsPerHour="1350" departLane="2" departSpeed="max"/>
    <flow id="main_flow_mid" type="car_main" route="route_main" begin="0.20" end="3600" vehsPerHour="1150" departLane="1" departSpeed="max"/>
    <flow id="main_flow_right" type="car_main" route="route_main" begin="0.20" end="3600" vehsPerHour="900" departLane="0" departSpeed="max"/>

    <flow id="ramp_flow" type="car_ramp" route="route_ramp" begin="0.20" end="3600" vehsPerHour="650" departLane="0" departSpeed="max"/>
</routes>



