<?xml version="1.0" encoding="UTF-8"?>

<!-- generated on 2026-05-30 20:30:43 by Eclipse SUMO netconvert Version 1.22.0
<netconvertConfiguration xmlns:xsi="http://www.w3.org/2001/XMLSchema-instance" xsi:noNamespaceSchemaLocation="http://sumo.dlr.de/xsd/netconvertConfiguration.xsd">

    <input>
        <node-files value="E:\WcDT_RL\scenarios\highway_merge\highway_merge.nod.xml"/>
        <edge-files value="E:\WcDT_RL\scenarios\highway_merge\highway_merge.edg.xml"/>
        <connection-files value="E:\WcDT_RL\scenarios\highway_merge\highway_merge.con.xml"/>
    </input>

    <output>
        <output-file value="E:\WcDT_RL\scenarios\highway_merge\highway_merge.net.xml"/>
    </output>

</netconvertConfiguration>
-->

<net version="1.20" junctionCornerDetail="5" limitTurnSpeed="5.50" xmlns:xsi="http://www.w3.org/2001/XMLSchema-instance" xsi:noNamespaceSchemaLocation="http://sumo.dlr.de/xsd/net_file.xsd">

    <location netOffset="300.00,0.00" convBoundary="0.00,0.00,760.00,65.00" origBoundary="-300.00,0.00,460.00,65.00" projParameter="!"/>

    <edge id=":aux_start_0" function="internal">
        <lane id=":aux_start_0_0" index="0" speed="33.33" length="12.96" shape="289.08,-8.00 292.82,-8.50 295.29,-9.60 297.76,-10.70 301.50,-11.20"/>
        <lane id=":aux_start_0_1" index="1" speed="33.33" length="12.96" shape="289.08,-4.80 292.82,-5.30 295.29,-6.40 297.76,-7.50 301.50,-8.00"/>
        <lane id=":aux_start_0_2" index="2" speed="33.33" length="12.96" shape="289.08,-1.60 292.82,-2.10 295.29,-3.20 297.76,-4.30 301.50,-4.80"/>
    </edge>
    <edge id=":aux_start_3" function="internal">
        <lane id=":aux_start_3_0" index="0" speed="27.77" length="12.47" shape="289.71,2.01 292.67,0.73 295.06,-0.43 297.72,-1.27 301.50,-1.60"/>
    </edge>
    <edge id=":taper_0" function="internal">
        <lane id=":taper_0_0" index="0" speed="33.33" length="8.81" shape="516.00,-11.20 518.46,-10.70 520.00,-9.60 521.54,-8.50 524.00,-8.00"/>
        <lane id=":taper_0_1" index="1" speed="33.33" length="8.81" shape="516.00,-8.00 518.46,-7.50 520.00,-6.40 521.54,-5.30 524.00,-4.80"/>
        <lane id=":taper_0_2" index="2" speed="33.33" length="8.81" shape="516.00,-4.80 518.46,-4.30 520.00,-3.20 521.54,-2.10 524.00,-1.60"/>
    </edge>

    <edge id="main_aux" from="aux_start" to="taper" priority="3">
        <lane id="main_aux_0" index="0" speed="33.33" length="214.50" acceleration="1" shape="301.50,-11.20 516.00,-11.20"/>
        <lane id="main_aux_1" index="1" speed="33.33" length="214.50" acceleration="1" shape="301.50,-8.00 516.00,-8.00"/>
        <lane id="main_aux_2" index="2" speed="33.33" length="214.50" acceleration="1" shape="301.50,-4.80 516.00,-4.80"/>
        <lane id="main_aux_3" index="3" speed="33.33" length="214.50" shape="301.50,-1.60 516.00,-1.60"/>
    </edge>
    <edge id="main_in" from="main_start" to="aux_start" priority="3">
        <lane id="main_in_0" index="0" speed="33.33" length="289.08" shape="0.00,-8.00 289.08,-8.00"/>
        <lane id="main_in_1" index="1" speed="33.33" length="289.08" shape="0.00,-4.80 289.08,-4.80"/>
        <lane id="main_in_2" index="2" speed="33.33" length="289.08" shape="0.00,-1.60 289.08,-1.60"/>
    </edge>
    <edge id="main_out" from="taper" to="main_end" priority="3">
        <lane id="main_out_0" index="0" speed="33.33" length="236.00" shape="524.00,-8.00 760.00,-8.00"/>
        <lane id="main_out_1" index="1" speed="33.33" length="236.00" shape="524.00,-4.80 760.00,-4.80"/>
        <lane id="main_out_2" index="2" speed="33.33" length="236.00" shape="524.00,-1.60 760.00,-1.60"/>
    </edge>
    <edge id="ramp_in" from="ramp_start" to="aux_start" priority="2">
        <lane id="ramp_in_0" index="0" speed="22.22" length="181.02" shape="119.46,63.50 289.71,2.01"/>
    </edge>

    <junction id="aux_start" type="priority" x="300.00" y="0.00" incLanes="main_in_0 main_in_1 main_in_2 ramp_in_0" intLanes=":aux_start_0_0 :aux_start_0_1 :aux_start_0_2 :aux_start_3_0" shape="301.50,0.00 301.50,-12.80 298.80,-12.56 296.85,-11.97 293.72,-10.43 291.78,-9.84 289.08,-9.60 289.08,0.00 289.17,0.51 290.25,3.52 292.60,2.56 294.32,1.72 295.75,1.01 297.20,0.47 299.01,0.12">
        <request index="0" response="0000" foes="0000" cont="0"/>
        <request index="1" response="0000" foes="0000" cont="0"/>
        <request index="2" response="0000" foes="0000" cont="0"/>
        <request index="3" response="0000" foes="0000" cont="0"/>
    </junction>
    <junction id="main_end" type="dead_end" x="760.00" y="0.00" incLanes="main_out_0 main_out_1 main_out_2" intLanes="" shape="760.00,-9.60 760.00,0.00"/>
    <junction id="main_start" type="dead_end" x="0.00" y="0.00" incLanes="" intLanes="" shape="0.00,0.00 0.00,-9.60"/>
    <junction id="ramp_start" type="dead_end" x="120.00" y="65.00" incLanes="" intLanes="" shape="120.00,65.00 118.91,61.99"/>
    <junction id="taper" type="priority" x="520.00" y="0.00" incLanes="main_aux_0 main_aux_1 main_aux_2 main_aux_3" intLanes=":taper_0_0 :taper_0_1 :taper_0_2" shape="524.00,0.00 524.00,-9.60 520.97,-10.43 519.03,-11.97 517.79,-12.56 516.00,-12.80 516.00,0.00">
        <request index="0" response="000" foes="000" cont="0"/>
        <request index="1" response="000" foes="000" cont="0"/>
        <request index="2" response="000" foes="000" cont="0"/>
    </junction>

    <connection from="main_aux" to="main_out" fromLane="0" toLane="0" via=":taper_0_0" dir="s" state="M"/>
    <connection from="main_aux" to="main_out" fromLane="1" toLane="1" via=":taper_0_1" dir="s" state="M"/>
    <connection from="main_aux" to="main_out" fromLane="2" toLane="2" via=":taper_0_2" dir="s" state="M"/>
    <connection from="main_in" to="main_aux" fromLane="0" toLane="0" via=":aux_start_0_0" dir="s" state="M"/>
    <connection from="main_in" to="main_aux" fromLane="1" toLane="1" via=":aux_start_0_1" dir="s" state="M"/>
    <connection from="main_in" to="main_aux" fromLane="2" toLane="2" via=":aux_start_0_2" dir="s" state="M"/>
    <connection from="ramp_in" to="main_aux" fromLane="0" toLane="3" via=":aux_start_3_0" dir="s" state="M"/>

    <connection from=":aux_start_0" to="main_aux" fromLane="0" toLane="0" dir="s" state="M"/>
    <connection from=":aux_start_0" to="main_aux" fromLane="1" toLane="1" dir="s" state="M"/>
    <connection from=":aux_start_0" to="main_aux" fromLane="2" toLane="2" dir="s" state="M"/>
    <connection from=":aux_start_3" to="main_aux" fromLane="0" toLane="3" dir="s" state="M"/>
    <connection from=":taper_0" to="main_out" fromLane="0" toLane="0" dir="s" state="M"/>
    <connection from=":taper_0" to="main_out" fromLane="1" toLane="1" dir="s" state="M"/>
    <connection from=":taper_0" to="main_out" fromLane="2" toLane="2" dir="s" state="M"/>

</net>
