<?xml version="1.0" encoding="UTF-8"?>

<!-- generated on 2026-05-31 18:53:09 by Eclipse SUMO netconvert Version 1.22.0
<netconvertConfiguration xmlns:xsi="http://www.w3.org/2001/XMLSchema-instance" xsi:noNamespaceSchemaLocation="http://sumo.dlr.de/xsd/netconvertConfiguration.xsd">

    <input>
        <node-files value="E:\WcDT_RL\scenarios\highway_merge\highway_merge.nod.xml"/>
        <edge-files value="E:\WcDT_RL\scenarios\highway_merge\highway_merge.edg.xml"/>
        <connection-files value="E:\WcDT_RL\scenarios\highway_merge\highway_merge.con.xml"/>
    </input>

    <output>
        <output-file value="E:\WcDT_RL\scenarios\highway_merge\highway_merge.net.xml"/>
    </output>

</netconvertConfiguration>
-->

<net version="1.20" junctionCornerDetail="5" limitTurnSpeed="5.50" xmlns:xsi="http://www.w3.org/2001/XMLSchema-instance" xsi:noNamespaceSchemaLocation="http://sumo.dlr.de/xsd/net_file.xsd">

    <location netOffset="300.00,65.00" convBoundary="0.00,0.00,760.00,65.00" origBoundary="-300.00,-65.00,460.00,0.00" projParameter="!"/>

    <edge id=":aux_start_0" function="internal">
        <lane id=":aux_start_0_0" index="0" speed="33.33" length="3.00" shape="298.50,57.00 301.50,57.00"/>
        <lane id=":aux_start_0_1" index="1" speed="33.33" length="3.00" shape="298.50,60.20 301.50,60.20"/>
        <lane id=":aux_start_0_2" index="2" speed="33.33" length="3.00" shape="298.50,63.40 301.50,63.40"/>
    </edge>
    <edge id=":aux_start_3" function="internal">
        <lane id=":aux_start_3_0" index="0" speed="27.77" length="3.00" shape="298.50,53.80 301.50,53.80"/>
    </edge>
    <edge id=":taper_0" function="internal">
        <lane id=":taper_0_0" index="0" speed="33.33" length="8.00" shape="516.00,57.00 524.00,57.00"/>
        <lane id=":taper_0_1" index="1" speed="33.33" length="8.00" shape="516.00,60.20 524.00,60.20"/>
        <lane id=":taper_0_2" index="2" speed="33.33" length="8.00" shape="516.00,63.40 524.00,63.40"/>
    </edge>

    <edge id="main_aux" from="aux_start" to="taper" priority="3">
        <lane id="main_aux_0" index="0" speed="33.33" length="214.50" acceleration="1" shape="301.50,53.80 516.00,53.80"/>
        <lane id="main_aux_1" index="1" speed="33.33" length="214.50" shape="301.50,57.00 516.00,57.00"/>
        <lane id="main_aux_2" index="2" speed="33.33" length="214.50" shape="301.50,60.20 516.00,60.20"/>
        <lane id="main_aux_3" index="3" speed="33.33" length="214.50" shape="301.50,63.40 516.00,63.40"/>
    </edge>
    <edge id="main_in" from="main_start" to="aux_start" priority="3">
        <lane id="main_in_0" index="0" speed="33.33" length="298.50" shape="0.00,57.00 298.50,57.00"/>
        <lane id="main_in_1" index="1" speed="33.33" length="298.50" shape="0.00,60.20 298.50,60.20"/>
        <lane id="main_in_2" index="2" speed="33.33" length="298.50" shape="0.00,63.40 298.50,63.40"/>
    </edge>
    <edge id="main_out" from="taper" to="main_end" priority="3">
        <lane id="main_out_0" index="0" speed="33.33" length="236.00" shape="524.00,57.00 760.00,57.00"/>
        <lane id="main_out_1" index="1" speed="33.33" length="236.00" shape="524.00,60.20 760.00,60.20"/>
        <lane id="main_out_2" index="2" speed="33.33" length="236.00" shape="524.00,63.40 760.00,63.40"/>
    </edge>
    <edge id="ramp_in" from="ramp_start" to="aux_start" priority="2" shape="120.00,0.00 155.00,0.00 190.00,5.00 220.00,20.00 245.00,40.00 260.00,51.00 270.00,55.00 280.00,55.40 290.00,55.40 297.00,55.40">
        <lane id="ramp_in_0" index="0" speed="22.22" length="193.79" shape="120.00,-1.60 155.11,-1.60 190.48,3.45 220.87,18.64 245.97,38.73 260.78,49.59 270.34,53.41 280.03,53.80 290.00,53.80 298.50,53.80"/>
    </edge>

    <junction id="aux_start" type="priority" x="300.00" y="65.00" incLanes="main_in_0 main_in_1 main_in_2 ramp_in_0" intLanes=":aux_start_0_0 :aux_start_0_1 :aux_start_0_2 :aux_start_3_0" shape="301.50,65.00 301.50,52.20 298.50,52.20 298.50,65.00">
        <request index="0" response="0000" foes="0000" cont="0"/>
        <request index="1" response="0000" foes="0000" cont="0"/>
        <request index="2" response="0000" foes="0000" cont="0"/>
        <request index="3" response="0000" foes="0000" cont="0"/>
    </junction>
    <junction id="main_end" type="dead_end" x="760.00" y="65.00" incLanes="main_out_0 main_out_1 main_out_2" intLanes="" shape="760.00,55.40 760.00,65.00"/>
    <junction id="main_start" type="dead_end" x="0.00" y="65.00" incLanes="" intLanes="" shape="0.00,65.00 0.00,55.40"/>
    <junction id="ramp_start" type="dead_end" x="120.00" y="0.00" incLanes="" intLanes="" shape="120.00,-0.00 120.00,-3.20"/>
    <junction id="taper" type="priority" x="520.00" y="65.00" incLanes="main_aux_0 main_aux_1 main_aux_2 main_aux_3" intLanes=":taper_0_0 :taper_0_1 :taper_0_2" shape="524.00,65.00 524.00,55.40 520.97,54.57 519.03,53.03 517.79,52.44 516.00,52.20 516.00,65.00">
        <request index="0" response="000" foes="000" cont="0"/>
        <request index="1" response="000" foes="000" cont="0"/>
        <request index="2" response="000" foes="000" cont="0"/>
    </junction>

    <connection from="main_aux" to="main_out" fromLane="1" toLane="0" via=":taper_0_0" dir="s" state="M"/>
    <connection from="main_aux" to="main_out" fromLane="2" toLane="1" via=":taper_0_1" dir="s" state="M"/>
    <connection from="main_aux" to="main_out" fromLane="3" toLane="2" via=":taper_0_2" dir="s" state="M"/>
    <connection from="main_in" to="main_aux" fromLane="0" toLane="1" via=":aux_start_0_0" dir="s" state="M"/>
    <connection from="main_in" to="main_aux" fromLane="1" toLane="2" via=":aux_start_0_1" dir="s" state="M"/>
    <connection from="main_in" to="main_aux" fromLane="2" toLane="3" via=":aux_start_0_2" dir="s" state="M"/>
    <connection from="ramp_in" to="main_aux" fromLane="0" toLane="0" via=":aux_start_3_0" dir="s" state="M"/>

    <connection from=":aux_start_0" to="main_aux" fromLane="0" toLane="1" dir="s" state="M"/>
    <connection from=":aux_start_0" to="main_aux" fromLane="1" toLane="2" dir="s" state="M"/>
    <connection from=":aux_start_0" to="main_aux" fromLane="2" toLane="3" dir="s" state="M"/>
    <connection from=":aux_start_3" to="main_aux" fromLane="0" toLane="0" dir="s" state="M"/>
    <connection from=":taper_0" to="main_out" fromLane="0" toLane="0" dir="s" state="M"/>
    <connection from=":taper_0" to="main_out" fromLane="1" toLane="1" dir="s" state="M"/>
    <connection from=":taper_0" to="main_out" fromLane="2" toLane="2" dir="s" state="M"/>

</net>
